* NGSPICE file created from i2c_master_axil.ext - technology: sky130A

* Black-box entry subcircuit for sky130_fd_sc_hd__tapvpwrvgnd_1 abstract view
.subckt sky130_fd_sc_hd__tapvpwrvgnd_1 VGND VPWR
.ends

* Black-box entry subcircuit for sky130_fd_sc_hd__mux2_1 abstract view
.subckt sky130_fd_sc_hd__mux2_1 A0 A1 S VGND VNB VPB VPWR X
.ends

* Black-box entry subcircuit for sky130_fd_sc_hd__fill_1 abstract view
.subckt sky130_fd_sc_hd__fill_1 VGND VNB VPB VPWR
.ends

* Black-box entry subcircuit for sky130_ef_sc_hd__decap_40_12 abstract view
.subckt sky130_ef_sc_hd__decap_40_12 VPWR VGND VPB VNB
.ends

* Black-box entry subcircuit for sky130_fd_sc_hd__diode_2 abstract view
.subckt sky130_fd_sc_hd__diode_2 DIODE VGND VNB VPB VPWR
.ends

* Black-box entry subcircuit for sky130_fd_sc_hd__nand2b_1 abstract view
.subckt sky130_fd_sc_hd__nand2b_1 A_N B VGND VNB VPB VPWR Y
.ends

* Black-box entry subcircuit for sky130_fd_sc_hd__mux4_1 abstract view
.subckt sky130_fd_sc_hd__mux4_1 A0 A1 A2 A3 S0 S1 VGND VNB VPB VPWR X
.ends

* Black-box entry subcircuit for sky130_fd_sc_hd__dfxtp_1 abstract view
.subckt sky130_fd_sc_hd__dfxtp_1 CLK D VGND VNB VPB VPWR Q
.ends

* Black-box entry subcircuit for sky130_fd_sc_hd__fill_4 abstract view
.subckt sky130_fd_sc_hd__fill_4 VGND VNB VPB VPWR
.ends

* Black-box entry subcircuit for sky130_fd_sc_hd__decap_3 abstract view
.subckt sky130_fd_sc_hd__decap_3 VGND VNB VPB VPWR
.ends

* Black-box entry subcircuit for sky130_fd_sc_hd__a22o_1 abstract view
.subckt sky130_fd_sc_hd__a22o_1 A1 A2 B1 B2 VGND VNB VPB VPWR X
.ends

* Black-box entry subcircuit for sky130_fd_sc_hd__dlygate4sd3_1 abstract view
.subckt sky130_fd_sc_hd__dlygate4sd3_1 A VGND VNB VPB VPWR X
.ends

* Black-box entry subcircuit for sky130_fd_sc_hd__fill_2 abstract view
.subckt sky130_fd_sc_hd__fill_2 VGND VNB VPB VPWR
.ends

* Black-box entry subcircuit for sky130_fd_sc_hd__or2_1 abstract view
.subckt sky130_fd_sc_hd__or2_1 A B VGND VNB VPB VPWR X
.ends

* Black-box entry subcircuit for sky130_fd_sc_hd__a21oi_1 abstract view
.subckt sky130_fd_sc_hd__a21oi_1 A1 A2 B1 VGND VNB VPB VPWR Y
.ends

* Black-box entry subcircuit for sky130_fd_sc_hd__inv_2 abstract view
.subckt sky130_fd_sc_hd__inv_2 A VGND VNB VPB VPWR Y
.ends

* Black-box entry subcircuit for sky130_fd_sc_hd__buf_4 abstract view
.subckt sky130_fd_sc_hd__buf_4 A VGND VNB VPB VPWR X
.ends

* Black-box entry subcircuit for sky130_fd_sc_hd__clkbuf_4 abstract view
.subckt sky130_fd_sc_hd__clkbuf_4 A VGND VNB VPB VPWR X
.ends

* Black-box entry subcircuit for sky130_fd_sc_hd__clkbuf_8 abstract view
.subckt sky130_fd_sc_hd__clkbuf_8 A VGND VNB VPB VPWR X
.ends

* Black-box entry subcircuit for sky130_fd_sc_hd__or3_4 abstract view
.subckt sky130_fd_sc_hd__or3_4 A B C VGND VNB VPB VPWR X
.ends

* Black-box entry subcircuit for sky130_fd_sc_hd__or3b_4 abstract view
.subckt sky130_fd_sc_hd__or3b_4 A B C_N VGND VNB VPB VPWR X
.ends

* Black-box entry subcircuit for sky130_fd_sc_hd__o211a_1 abstract view
.subckt sky130_fd_sc_hd__o211a_1 A1 A2 B1 C1 VGND VNB VPB VPWR X
.ends

* Black-box entry subcircuit for sky130_fd_sc_hd__fill_8 abstract view
.subckt sky130_fd_sc_hd__fill_8 VGND VNB VPB VPWR
.ends

* Black-box entry subcircuit for sky130_fd_sc_hd__conb_1 abstract view
.subckt sky130_fd_sc_hd__conb_1 VGND VNB VPB VPWR HI LO
.ends

* Black-box entry subcircuit for sky130_fd_sc_hd__or2_4 abstract view
.subckt sky130_fd_sc_hd__or2_4 A B VGND VNB VPB VPWR X
.ends

* Black-box entry subcircuit for sky130_fd_sc_hd__o2bb2a_1 abstract view
.subckt sky130_fd_sc_hd__o2bb2a_1 A1_N A2_N B1 B2 VGND VNB VPB VPWR X
.ends

* Black-box entry subcircuit for sky130_fd_sc_hd__nor2_1 abstract view
.subckt sky130_fd_sc_hd__nor2_1 A B VGND VNB VPB VPWR Y
.ends

* Black-box entry subcircuit for sky130_fd_sc_hd__nand2_1 abstract view
.subckt sky130_fd_sc_hd__nand2_1 A B VGND VNB VPB VPWR Y
.ends

* Black-box entry subcircuit for sky130_fd_sc_hd__inv_12 abstract view
.subckt sky130_fd_sc_hd__inv_12 A VGND VNB VPB VPWR Y
.ends

* Black-box entry subcircuit for sky130_fd_sc_hd__o21a_1 abstract view
.subckt sky130_fd_sc_hd__o21a_1 A1 A2 B1 VGND VNB VPB VPWR X
.ends

* Black-box entry subcircuit for sky130_fd_sc_hd__o21ai_1 abstract view
.subckt sky130_fd_sc_hd__o21ai_1 A1 A2 B1 VGND VNB VPB VPWR Y
.ends

* Black-box entry subcircuit for sky130_fd_sc_hd__or3b_1 abstract view
.subckt sky130_fd_sc_hd__or3b_1 A B C_N VGND VNB VPB VPWR X
.ends

* Black-box entry subcircuit for sky130_fd_sc_hd__dfxtp_2 abstract view
.subckt sky130_fd_sc_hd__dfxtp_2 CLK D VGND VNB VPB VPWR Q
.ends

* Black-box entry subcircuit for sky130_fd_sc_hd__nor2_8 abstract view
.subckt sky130_fd_sc_hd__nor2_8 A B VGND VNB VPB VPWR Y
.ends

* Black-box entry subcircuit for sky130_fd_sc_hd__and2b_4 abstract view
.subckt sky130_fd_sc_hd__and2b_4 A_N B VGND VNB VPB VPWR X
.ends

* Black-box entry subcircuit for sky130_fd_sc_hd__or4_1 abstract view
.subckt sky130_fd_sc_hd__or4_1 A B C D VGND VNB VPB VPWR X
.ends

* Black-box entry subcircuit for sky130_fd_sc_hd__buf_2 abstract view
.subckt sky130_fd_sc_hd__buf_2 A VGND VNB VPB VPWR X
.ends

* Black-box entry subcircuit for sky130_fd_sc_hd__and2b_1 abstract view
.subckt sky130_fd_sc_hd__and2b_1 A_N B VGND VNB VPB VPWR X
.ends

* Black-box entry subcircuit for sky130_fd_sc_hd__and2_1 abstract view
.subckt sky130_fd_sc_hd__and2_1 A B VGND VNB VPB VPWR X
.ends

* Black-box entry subcircuit for sky130_fd_sc_hd__clkbuf_16 abstract view
.subckt sky130_fd_sc_hd__clkbuf_16 A VGND VNB VPB VPWR X
.ends

* Black-box entry subcircuit for sky130_fd_sc_hd__o311a_1 abstract view
.subckt sky130_fd_sc_hd__o311a_1 A1 A2 A3 B1 C1 VGND VNB VPB VPWR X
.ends

* Black-box entry subcircuit for sky130_fd_sc_hd__a21o_1 abstract view
.subckt sky130_fd_sc_hd__a21o_1 A1 A2 B1 VGND VNB VPB VPWR X
.ends

* Black-box entry subcircuit for sky130_fd_sc_hd__nor2_4 abstract view
.subckt sky130_fd_sc_hd__nor2_4 A B VGND VNB VPB VPWR Y
.ends

* Black-box entry subcircuit for sky130_fd_sc_hd__clkinvlp_4 abstract view
.subckt sky130_fd_sc_hd__clkinvlp_4 A VGND VNB VPB VPWR Y
.ends

* Black-box entry subcircuit for sky130_fd_sc_hd__clkinv_8 abstract view
.subckt sky130_fd_sc_hd__clkinv_8 A VGND VNB VPB VPWR Y
.ends

* Black-box entry subcircuit for sky130_fd_sc_hd__dfxtp_4 abstract view
.subckt sky130_fd_sc_hd__dfxtp_4 CLK D VGND VNB VPB VPWR Q
.ends

* Black-box entry subcircuit for sky130_fd_sc_hd__or3_1 abstract view
.subckt sky130_fd_sc_hd__or3_1 A B C VGND VNB VPB VPWR X
.ends

* Black-box entry subcircuit for sky130_fd_sc_hd__nand2b_4 abstract view
.subckt sky130_fd_sc_hd__nand2b_4 A_N B VGND VNB VPB VPWR Y
.ends

* Black-box entry subcircuit for sky130_fd_sc_hd__nor4b_2 abstract view
.subckt sky130_fd_sc_hd__nor4b_2 A B C D_N VGND VNB VPB VPWR Y
.ends

* Black-box entry subcircuit for sky130_fd_sc_hd__or3_2 abstract view
.subckt sky130_fd_sc_hd__or3_2 A B C VGND VNB VPB VPWR X
.ends

* Black-box entry subcircuit for sky130_fd_sc_hd__bufinv_16 abstract view
.subckt sky130_fd_sc_hd__bufinv_16 A VGND VNB VPB VPWR Y
.ends

* Black-box entry subcircuit for sky130_fd_sc_hd__nor2_2 abstract view
.subckt sky130_fd_sc_hd__nor2_2 A B VGND VNB VPB VPWR Y
.ends

* Black-box entry subcircuit for sky130_fd_sc_hd__a211o_1 abstract view
.subckt sky130_fd_sc_hd__a211o_1 A1 A2 B1 C1 VGND VNB VPB VPWR X
.ends

* Black-box entry subcircuit for sky130_fd_sc_hd__nand2_4 abstract view
.subckt sky130_fd_sc_hd__nand2_4 A B VGND VNB VPB VPWR Y
.ends

* Black-box entry subcircuit for sky130_fd_sc_hd__o21ba_1 abstract view
.subckt sky130_fd_sc_hd__o21ba_1 A1 A2 B1_N VGND VNB VPB VPWR X
.ends

* Black-box entry subcircuit for sky130_fd_sc_hd__or4b_4 abstract view
.subckt sky130_fd_sc_hd__or4b_4 A B C D_N VGND VNB VPB VPWR X
.ends

* Black-box entry subcircuit for sky130_fd_sc_hd__clkinv_2 abstract view
.subckt sky130_fd_sc_hd__clkinv_2 A VGND VNB VPB VPWR Y
.ends

* Black-box entry subcircuit for sky130_fd_sc_hd__inv_6 abstract view
.subckt sky130_fd_sc_hd__inv_6 A VGND VNB VPB VPWR Y
.ends

* Black-box entry subcircuit for sky130_fd_sc_hd__a41o_1 abstract view
.subckt sky130_fd_sc_hd__a41o_1 A1 A2 A3 A4 B1 VGND VNB VPB VPWR X
.ends

* Black-box entry subcircuit for sky130_fd_sc_hd__a21oi_2 abstract view
.subckt sky130_fd_sc_hd__a21oi_2 A1 A2 B1 VGND VNB VPB VPWR Y
.ends

* Black-box entry subcircuit for sky130_fd_sc_hd__o211ai_1 abstract view
.subckt sky130_fd_sc_hd__o211ai_1 A1 A2 B1 C1 VGND VNB VPB VPWR Y
.ends

* Black-box entry subcircuit for sky130_fd_sc_hd__and2_4 abstract view
.subckt sky130_fd_sc_hd__and2_4 A B VGND VNB VPB VPWR X
.ends

* Black-box entry subcircuit for sky130_fd_sc_hd__o31ai_1 abstract view
.subckt sky130_fd_sc_hd__o31ai_1 A1 A2 A3 B1 VGND VNB VPB VPWR Y
.ends

* Black-box entry subcircuit for sky130_fd_sc_hd__and4bb_4 abstract view
.subckt sky130_fd_sc_hd__and4bb_4 A_N B_N C D VGND VNB VPB VPWR X
.ends

* Black-box entry subcircuit for sky130_fd_sc_hd__or4bb_1 abstract view
.subckt sky130_fd_sc_hd__or4bb_1 A B C_N D_N VGND VNB VPB VPWR X
.ends

* Black-box entry subcircuit for sky130_fd_sc_hd__and2_2 abstract view
.subckt sky130_fd_sc_hd__and2_2 A B VGND VNB VPB VPWR X
.ends

* Black-box entry subcircuit for sky130_fd_sc_hd__and4b_1 abstract view
.subckt sky130_fd_sc_hd__and4b_1 A_N B C D VGND VNB VPB VPWR X
.ends

* Black-box entry subcircuit for sky130_fd_sc_hd__xor2_1 abstract view
.subckt sky130_fd_sc_hd__xor2_1 A B VGND VNB VPB VPWR X
.ends

* Black-box entry subcircuit for sky130_fd_sc_hd__a2bb2o_1 abstract view
.subckt sky130_fd_sc_hd__a2bb2o_1 A1_N A2_N B1 B2 VGND VNB VPB VPWR X
.ends

* Black-box entry subcircuit for sky130_fd_sc_hd__or3b_2 abstract view
.subckt sky130_fd_sc_hd__or3b_2 A B C_N VGND VNB VPB VPWR X
.ends

* Black-box entry subcircuit for sky130_fd_sc_hd__and3_1 abstract view
.subckt sky130_fd_sc_hd__and3_1 A B C VGND VNB VPB VPWR X
.ends

* Black-box entry subcircuit for sky130_fd_sc_hd__a211oi_4 abstract view
.subckt sky130_fd_sc_hd__a211oi_4 A1 A2 B1 C1 VGND VNB VPB VPWR Y
.ends

* Black-box entry subcircuit for sky130_fd_sc_hd__o21bai_1 abstract view
.subckt sky130_fd_sc_hd__o21bai_1 A1 A2 B1_N VGND VNB VPB VPWR Y
.ends

* Black-box entry subcircuit for sky130_fd_sc_hd__a221o_2 abstract view
.subckt sky130_fd_sc_hd__a221o_2 A1 A2 B1 B2 C1 VGND VNB VPB VPWR X
.ends

* Black-box entry subcircuit for sky130_fd_sc_hd__a221o_1 abstract view
.subckt sky130_fd_sc_hd__a221o_1 A1 A2 B1 B2 C1 VGND VNB VPB VPWR X
.ends

* Black-box entry subcircuit for sky130_fd_sc_hd__inv_8 abstract view
.subckt sky130_fd_sc_hd__inv_8 A VGND VNB VPB VPWR Y
.ends

* Black-box entry subcircuit for sky130_fd_sc_hd__a211oi_1 abstract view
.subckt sky130_fd_sc_hd__a211oi_1 A1 A2 B1 C1 VGND VNB VPB VPWR Y
.ends

* Black-box entry subcircuit for sky130_fd_sc_hd__o22a_1 abstract view
.subckt sky130_fd_sc_hd__o22a_1 A1 A2 B1 B2 VGND VNB VPB VPWR X
.ends

* Black-box entry subcircuit for sky130_fd_sc_hd__o221a_1 abstract view
.subckt sky130_fd_sc_hd__o221a_1 A1 A2 B1 B2 C1 VGND VNB VPB VPWR X
.ends

* Black-box entry subcircuit for sky130_fd_sc_hd__o21ai_2 abstract view
.subckt sky130_fd_sc_hd__o21ai_2 A1 A2 B1 VGND VNB VPB VPWR Y
.ends

* Black-box entry subcircuit for sky130_fd_sc_hd__a21bo_1 abstract view
.subckt sky130_fd_sc_hd__a21bo_1 A1 A2 B1_N VGND VNB VPB VPWR X
.ends

* Black-box entry subcircuit for sky130_fd_sc_hd__a31o_1 abstract view
.subckt sky130_fd_sc_hd__a31o_1 A1 A2 A3 B1 VGND VNB VPB VPWR X
.ends

* Black-box entry subcircuit for sky130_fd_sc_hd__and4_1 abstract view
.subckt sky130_fd_sc_hd__and4_1 A B C D VGND VNB VPB VPWR X
.ends

* Black-box entry subcircuit for sky130_fd_sc_hd__nand2_8 abstract view
.subckt sky130_fd_sc_hd__nand2_8 A B VGND VNB VPB VPWR Y
.ends

* Black-box entry subcircuit for sky130_fd_sc_hd__or4bb_2 abstract view
.subckt sky130_fd_sc_hd__or4bb_2 A B C_N D_N VGND VNB VPB VPWR X
.ends

* Black-box entry subcircuit for sky130_fd_sc_hd__a21oi_4 abstract view
.subckt sky130_fd_sc_hd__a21oi_4 A1 A2 B1 VGND VNB VPB VPWR Y
.ends

* Black-box entry subcircuit for sky130_fd_sc_hd__clkinv_4 abstract view
.subckt sky130_fd_sc_hd__clkinv_4 A VGND VNB VPB VPWR Y
.ends

* Black-box entry subcircuit for sky130_fd_sc_hd__nand3b_2 abstract view
.subckt sky130_fd_sc_hd__nand3b_2 A_N B C VGND VNB VPB VPWR Y
.ends

* Black-box entry subcircuit for sky130_fd_sc_hd__a2111oi_4 abstract view
.subckt sky130_fd_sc_hd__a2111oi_4 A1 A2 B1 C1 D1 VGND VNB VPB VPWR Y
.ends

* Black-box entry subcircuit for sky130_fd_sc_hd__or4_2 abstract view
.subckt sky130_fd_sc_hd__or4_2 A B C D VGND VNB VPB VPWR X
.ends

* Black-box entry subcircuit for sky130_fd_sc_hd__nand2_2 abstract view
.subckt sky130_fd_sc_hd__nand2_2 A B VGND VNB VPB VPWR Y
.ends

* Black-box entry subcircuit for sky130_fd_sc_hd__o32a_1 abstract view
.subckt sky130_fd_sc_hd__o32a_1 A1 A2 A3 B1 B2 VGND VNB VPB VPWR X
.ends

* Black-box entry subcircuit for sky130_fd_sc_hd__o41a_1 abstract view
.subckt sky130_fd_sc_hd__o41a_1 A1 A2 A3 A4 B1 VGND VNB VPB VPWR X
.ends

* Black-box entry subcircuit for sky130_fd_sc_hd__a21boi_1 abstract view
.subckt sky130_fd_sc_hd__a21boi_1 A1 A2 B1_N VGND VNB VPB VPWR Y
.ends

* Black-box entry subcircuit for sky130_fd_sc_hd__o22ai_1 abstract view
.subckt sky130_fd_sc_hd__o22ai_1 A1 A2 B1 B2 VGND VNB VPB VPWR Y
.ends

* Black-box entry subcircuit for sky130_fd_sc_hd__nor4_2 abstract view
.subckt sky130_fd_sc_hd__nor4_2 A B C D VGND VNB VPB VPWR Y
.ends

* Black-box entry subcircuit for sky130_fd_sc_hd__o21bai_2 abstract view
.subckt sky130_fd_sc_hd__o21bai_2 A1 A2 B1_N VGND VNB VPB VPWR Y
.ends

* Black-box entry subcircuit for sky130_fd_sc_hd__inv_16 abstract view
.subckt sky130_fd_sc_hd__inv_16 A VGND VNB VPB VPWR Y
.ends

* Black-box entry subcircuit for sky130_fd_sc_hd__o31a_1 abstract view
.subckt sky130_fd_sc_hd__o31a_1 A1 A2 A3 B1 VGND VNB VPB VPWR X
.ends

* Black-box entry subcircuit for sky130_fd_sc_hd__nor3_1 abstract view
.subckt sky130_fd_sc_hd__nor3_1 A B C VGND VNB VPB VPWR Y
.ends

* Black-box entry subcircuit for sky130_fd_sc_hd__buf_1 abstract view
.subckt sky130_fd_sc_hd__buf_1 A VGND VNB VPB VPWR X
.ends

* Black-box entry subcircuit for sky130_fd_sc_hd__or4b_1 abstract view
.subckt sky130_fd_sc_hd__or4b_1 A B C D_N VGND VNB VPB VPWR X
.ends

* Black-box entry subcircuit for sky130_fd_sc_hd__o221ai_1 abstract view
.subckt sky130_fd_sc_hd__o221ai_1 A1 A2 B1 B2 C1 VGND VNB VPB VPWR Y
.ends

* Black-box entry subcircuit for sky130_fd_sc_hd__nor3_4 abstract view
.subckt sky130_fd_sc_hd__nor3_4 A B C VGND VNB VPB VPWR Y
.ends

* Black-box entry subcircuit for sky130_fd_sc_hd__a2111o_1 abstract view
.subckt sky130_fd_sc_hd__a2111o_1 A1 A2 B1 C1 D1 VGND VNB VPB VPWR X
.ends

* Black-box entry subcircuit for sky130_fd_sc_hd__or2_2 abstract view
.subckt sky130_fd_sc_hd__or2_2 A B VGND VNB VPB VPWR X
.ends

* Black-box entry subcircuit for sky130_fd_sc_hd__nand4_1 abstract view
.subckt sky130_fd_sc_hd__nand4_1 A B C D VGND VNB VPB VPWR Y
.ends

* Black-box entry subcircuit for sky130_fd_sc_hd__inv_4 abstract view
.subckt sky130_fd_sc_hd__inv_4 A VGND VNB VPB VPWR Y
.ends

* Black-box entry subcircuit for sky130_fd_sc_hd__xnor2_1 abstract view
.subckt sky130_fd_sc_hd__xnor2_1 A B VGND VNB VPB VPWR Y
.ends

* Black-box entry subcircuit for sky130_fd_sc_hd__clkbuf_1 abstract view
.subckt sky130_fd_sc_hd__clkbuf_1 A VGND VNB VPB VPWR X
.ends

* Black-box entry subcircuit for sky130_fd_sc_hd__buf_8 abstract view
.subckt sky130_fd_sc_hd__buf_8 A VGND VNB VPB VPWR X
.ends

* Black-box entry subcircuit for sky130_fd_sc_hd__clkbuf_2 abstract view
.subckt sky130_fd_sc_hd__clkbuf_2 A VGND VNB VPB VPWR X
.ends

* Black-box entry subcircuit for sky130_fd_sc_hd__a31oi_2 abstract view
.subckt sky130_fd_sc_hd__a31oi_2 A1 A2 A3 B1 VGND VNB VPB VPWR Y
.ends

* Black-box entry subcircuit for sky130_fd_sc_hd__and3_2 abstract view
.subckt sky130_fd_sc_hd__and3_2 A B C VGND VNB VPB VPWR X
.ends

* Black-box entry subcircuit for sky130_fd_sc_hd__nand3_4 abstract view
.subckt sky130_fd_sc_hd__nand3_4 A B C VGND VNB VPB VPWR Y
.ends

* Black-box entry subcircuit for sky130_fd_sc_hd__and3b_1 abstract view
.subckt sky130_fd_sc_hd__and3b_1 A_N B C VGND VNB VPB VPWR X
.ends

* Black-box entry subcircuit for sky130_fd_sc_hd__nor4_1 abstract view
.subckt sky130_fd_sc_hd__nor4_1 A B C D VGND VNB VPB VPWR Y
.ends

* Black-box entry subcircuit for sky130_fd_sc_hd__buf_6 abstract view
.subckt sky130_fd_sc_hd__buf_6 A VGND VNB VPB VPWR X
.ends

* Black-box entry subcircuit for sky130_fd_sc_hd__a32oi_1 abstract view
.subckt sky130_fd_sc_hd__a32oi_1 A1 A2 A3 B1 B2 VGND VNB VPB VPWR Y
.ends

* Black-box entry subcircuit for sky130_fd_sc_hd__or4b_2 abstract view
.subckt sky130_fd_sc_hd__or4b_2 A B C D_N VGND VNB VPB VPWR X
.ends

* Black-box entry subcircuit for sky130_fd_sc_hd__a221o_4 abstract view
.subckt sky130_fd_sc_hd__a221o_4 A1 A2 B1 B2 C1 VGND VNB VPB VPWR X
.ends

* Black-box entry subcircuit for sky130_fd_sc_hd__o2111ai_1 abstract view
.subckt sky130_fd_sc_hd__o2111ai_1 A1 A2 B1 C1 D1 VGND VNB VPB VPWR Y
.ends

* Black-box entry subcircuit for sky130_fd_sc_hd__o31ai_2 abstract view
.subckt sky130_fd_sc_hd__o31ai_2 A1 A2 A3 B1 VGND VNB VPB VPWR Y
.ends

* Black-box entry subcircuit for sky130_fd_sc_hd__a22oi_2 abstract view
.subckt sky130_fd_sc_hd__a22oi_2 A1 A2 B1 B2 VGND VNB VPB VPWR Y
.ends

.subckt i2c_master_axil VGND VPWR clk i2c_scl_i i2c_scl_o i2c_scl_t i2c_sda_i i2c_sda_o
+ i2c_sda_t rst s_axil_araddr[0] s_axil_araddr[1] s_axil_araddr[2] s_axil_araddr[3]
+ s_axil_arprot[0] s_axil_arprot[1] s_axil_arprot[2] s_axil_arready s_axil_arvalid
+ s_axil_awaddr[0] s_axil_awaddr[1] s_axil_awaddr[2] s_axil_awaddr[3] s_axil_awprot[0]
+ s_axil_awprot[1] s_axil_awprot[2] s_axil_awready s_axil_awvalid s_axil_bready s_axil_bresp[0]
+ s_axil_bresp[1] s_axil_bvalid s_axil_rdata[0] s_axil_rdata[10] s_axil_rdata[11]
+ s_axil_rdata[12] s_axil_rdata[13] s_axil_rdata[14] s_axil_rdata[15] s_axil_rdata[16]
+ s_axil_rdata[17] s_axil_rdata[18] s_axil_rdata[19] s_axil_rdata[1] s_axil_rdata[20]
+ s_axil_rdata[21] s_axil_rdata[22] s_axil_rdata[23] s_axil_rdata[24] s_axil_rdata[25]
+ s_axil_rdata[26] s_axil_rdata[27] s_axil_rdata[28] s_axil_rdata[29] s_axil_rdata[2]
+ s_axil_rdata[30] s_axil_rdata[31] s_axil_rdata[3] s_axil_rdata[4] s_axil_rdata[5]
+ s_axil_rdata[6] s_axil_rdata[7] s_axil_rdata[8] s_axil_rdata[9] s_axil_rready s_axil_rresp[0]
+ s_axil_rresp[1] s_axil_rvalid s_axil_wdata[0] s_axil_wdata[10] s_axil_wdata[11]
+ s_axil_wdata[12] s_axil_wdata[13] s_axil_wdata[14] s_axil_wdata[15] s_axil_wdata[16]
+ s_axil_wdata[17] s_axil_wdata[18] s_axil_wdata[19] s_axil_wdata[1] s_axil_wdata[20]
+ s_axil_wdata[21] s_axil_wdata[22] s_axil_wdata[23] s_axil_wdata[24] s_axil_wdata[25]
+ s_axil_wdata[26] s_axil_wdata[27] s_axil_wdata[28] s_axil_wdata[29] s_axil_wdata[2]
+ s_axil_wdata[30] s_axil_wdata[31] s_axil_wdata[3] s_axil_wdata[4] s_axil_wdata[5]
+ s_axil_wdata[6] s_axil_wdata[7] s_axil_wdata[8] s_axil_wdata[9] s_axil_wready s_axil_wstrb[0]
+ s_axil_wstrb[1] s_axil_wstrb[2] s_axil_wstrb[3] s_axil_wvalid
XTAP_TAPCELL_ROW_87_1605 VGND VPWR sky130_fd_sc_hd__tapvpwrvgnd_1
X_3155_ _5066_/A0 hold6/X _3156_/S VGND VGND VPWR VPWR _3155_/X sky130_fd_sc_hd__mux2_1
XFILLER_67_586 VGND VGND VPWR VPWR sky130_fd_sc_hd__fill_1
XFILLER_55_704 VGND VGND VPWR VPWR sky130_fd_sc_hd__fill_1
XFILLER_27_417 VPWR VGND VPWR VGND sky130_ef_sc_hd__decap_40_12
XANTENNA__3140__B2 _5200_/A VGND VGND VPWR VPWR sky130_fd_sc_hd__diode_2
X_3086_ _6137_/Q _5560_/Q _3086_/S VGND VGND VPWR VPWR _3086_/X sky130_fd_sc_hd__mux2_1
XANTENNA_fanout162_A _4212_/A VGND VGND VPWR VPWR sky130_fd_sc_hd__diode_2
XTAP_TAPCELL_ROW_46_990 VGND VPWR sky130_fd_sc_hd__tapvpwrvgnd_1
X_3988_ _5915_/Q _3988_/B VGND VGND VPWR VPWR _5008_/B sky130_fd_sc_hd__nand2b_1
XANTENNA__4670__A _4809_/A VGND VGND VPWR VPWR sky130_fd_sc_hd__diode_2
X_2939_ _5421_/Q _5495_/Q _5351_/Q _5579_/Q _2963_/S _2962_/A VGND VGND VPWR VPWR
+ _2940_/B sky130_fd_sc_hd__mux4_1
X_5727_ _6294_/CLK _5727_/D VGND VGND VPWR VPWR _5727_/Q sky130_fd_sc_hd__dfxtp_1
XFILLER_136_525 VGND VGND VPWR VPWR sky130_fd_sc_hd__fill_4
XTAP_TAPCELL_ROW_98_1767 VGND VPWR sky130_fd_sc_hd__tapvpwrvgnd_1
X_5658_ _5898_/CLK _5658_/D VGND VGND VPWR VPWR _5658_/Q sky130_fd_sc_hd__dfxtp_1
XFILLER_136_569 VPWR VGND VPWR VGND sky130_ef_sc_hd__decap_40_12
XPHY_EDGE_ROW_107_Left_246 VGND VGND VPWR VPWR sky130_fd_sc_hd__decap_3
X_5589_ _6297_/CLK _5589_/D VGND VGND VPWR VPWR _5589_/Q sky130_fd_sc_hd__dfxtp_1
X_4609_ _4792_/A1 _4604_/X _4606_/X _4608_/X VGND VGND VPWR VPWR _4609_/X sky130_fd_sc_hd__a22o_1
Xhold351 _5357_/Q VGND VGND VPWR VPWR hold351/X sky130_fd_sc_hd__dlygate4sd3_1
XFILLER_117_783 VGND VGND VPWR VPWR sky130_fd_sc_hd__fill_1
XFILLER_89_111 VGND VGND VPWR VPWR sky130_fd_sc_hd__fill_1
Xhold340 _3740_/X VGND VGND VPWR VPWR _5754_/D sky130_fd_sc_hd__dlygate4sd3_1
Xhold362 _4482_/X VGND VGND VPWR VPWR _6089_/D sky130_fd_sc_hd__dlygate4sd3_1
XFILLER_132_753 VGND VGND VPWR VPWR sky130_fd_sc_hd__fill_2
Xhold395 _6222_/Q VGND VGND VPWR VPWR hold395/X sky130_fd_sc_hd__dlygate4sd3_1
Xhold384 _4534_/X VGND VGND VPWR VPWR _6136_/D sky130_fd_sc_hd__dlygate4sd3_1
Xhold373 _6156_/Q VGND VGND VPWR VPWR hold373/X sky130_fd_sc_hd__dlygate4sd3_1
XTAP_TAPCELL_ROW_129_2233 VGND VPWR sky130_fd_sc_hd__tapvpwrvgnd_1
XFILLER_58_531 VGND VGND VPWR VPWR sky130_fd_sc_hd__fill_1
Xhold1040 _6063_/Q VGND VGND VPWR VPWR _4447_/A1 sky130_fd_sc_hd__dlygate4sd3_1
Xhold1051 _3536_/X VGND VGND VPWR VPWR _5579_/D sky130_fd_sc_hd__dlygate4sd3_1
XTAP_TAPCELL_ROW_51_1063 VGND VPWR sky130_fd_sc_hd__tapvpwrvgnd_1
XTAP_TAPCELL_ROW_5_376 VGND VPWR sky130_fd_sc_hd__tapvpwrvgnd_1
XFILLER_18_417 VGND VGND VPWR VPWR sky130_fd_sc_hd__fill_2
Xhold1062 _5377_/Q VGND VGND VPWR VPWR _3217_/A1 sky130_fd_sc_hd__dlygate4sd3_1
XPHY_EDGE_ROW_116_Left_255 VGND VGND VPWR VPWR sky130_fd_sc_hd__decap_3
Xhold1073 _4543_/X VGND VGND VPWR VPWR _6145_/D sky130_fd_sc_hd__dlygate4sd3_1
XFILLER_93_47 VGND VGND VPWR VPWR sky130_fd_sc_hd__fill_1
XANTENNA__2636__Y _2636_/Y VGND VGND VPWR VPWR sky130_fd_sc_hd__diode_2
Xhold1084 _5661_/Q VGND VGND VPWR VPWR _3633_/A0 sky130_fd_sc_hd__dlygate4sd3_1
XANTENNA__4056__S _4257_/S VGND VGND VPWR VPWR sky130_fd_sc_hd__diode_2
Xhold1095 _3713_/X VGND VGND VPWR VPWR _5733_/D sky130_fd_sc_hd__dlygate4sd3_1
XFILLER_14_601 VPWR VGND VPWR VGND sky130_ef_sc_hd__decap_40_12
XANTENNA__3895__S _3899_/S VGND VGND VPWR VPWR sky130_fd_sc_hd__diode_2
XFILLER_14_645 VPWR VGND VPWR VGND sky130_ef_sc_hd__decap_40_12
XFILLER_41_431 VGND VGND VPWR VPWR sky130_fd_sc_hd__fill_2
XANTENNA__4919__C1 _5200_/A VGND VGND VPWR VPWR sky130_fd_sc_hd__diode_2
XTAP_TAPCELL_ROW_24_662 VGND VPWR sky130_fd_sc_hd__tapvpwrvgnd_1
XFILLER_41_453 VGND VGND VPWR VPWR sky130_fd_sc_hd__fill_1
XANTENNA__3198__A1 _5241_/A1 VGND VGND VPWR VPWR sky130_fd_sc_hd__diode_2
XFILLER_9_137 VGND VGND VPWR VPWR sky130_fd_sc_hd__fill_1
XANTENNA__4395__A0 _4983_/A1 VGND VGND VPWR VPWR sky130_fd_sc_hd__diode_2
XFILLER_13_188 VGND VGND VPWR VPWR sky130_fd_sc_hd__fill_2
XFILLER_127_503 VGND VGND VPWR VPWR sky130_fd_sc_hd__fill_1
XFILLER_6_811 VGND VGND VPWR VPWR sky130_fd_sc_hd__fill_1
XPHY_EDGE_ROW_125_Left_264 VGND VGND VPWR VPWR sky130_fd_sc_hd__decap_3
XFILLER_115_709 VPWR VGND VPWR VGND sky130_ef_sc_hd__decap_40_12
XANTENNA__4698__A1 _4811_/A1 VGND VGND VPWR VPWR sky130_fd_sc_hd__diode_2
XFILLER_123_753 VPWR VGND VPWR VGND sky130_ef_sc_hd__decap_40_12
XFILLER_69_818 VGND VGND VPWR VPWR sky130_fd_sc_hd__fill_2
XANTENNA__3370__A1 _5840_/Q VGND VGND VPWR VPWR sky130_fd_sc_hd__diode_2
XFILLER_123_797 VPWR VGND VPWR VGND sky130_ef_sc_hd__decap_40_12
XFILLER_96_637 VGND VGND VPWR VPWR sky130_fd_sc_hd__fill_4
XANTENNA__3122__A1 _5233_/A0 VGND VGND VPWR VPWR sky130_fd_sc_hd__diode_2
XPHY_EDGE_ROW_134_Left_273 VGND VGND VPWR VPWR sky130_fd_sc_hd__decap_3
XFILLER_95_169 VGND VGND VPWR VPWR sky130_fd_sc_hd__fill_4
XFILLER_67_92 VGND VGND VPWR VPWR sky130_fd_sc_hd__fill_2
XANTENNA__4870__A1 _4883_/A1 VGND VGND VPWR VPWR sky130_fd_sc_hd__diode_2
XTAP_TAPCELL_ROW_69_1335 VGND VPWR sky130_fd_sc_hd__tapvpwrvgnd_1
XTAP_TAPCELL_ROW_82_1524 VGND VPWR sky130_fd_sc_hd__tapvpwrvgnd_1
XANTENNA__4622__A1 _4791_/A1 VGND VGND VPWR VPWR sky130_fd_sc_hd__diode_2
X_4960_ _5212_/A1 _4960_/A1 _4964_/S VGND VGND VPWR VPWR _4960_/X sky130_fd_sc_hd__mux2_1
XFILLER_17_461 VPWR VGND VPWR VGND sky130_ef_sc_hd__decap_40_12
X_4891_ _4891_/A0 _4904_/A0 _4893_/S VGND VGND VPWR VPWR _4891_/X sky130_fd_sc_hd__mux2_1
XTAP_TAPCELL_ROW_82_1535 VGND VPWR sky130_fd_sc_hd__tapvpwrvgnd_1
XANTENNA__3658__X _3667_/S VGND VGND VPWR VPWR sky130_fd_sc_hd__diode_2
X_3911_ _3911_/A0 _5209_/A1 _3918_/S VGND VGND VPWR VPWR _3911_/X sky130_fd_sc_hd__mux2_1
X_3842_ _3842_/A _3852_/B VGND VGND VPWR VPWR _3842_/X sky130_fd_sc_hd__or2_1
XFILLER_60_773 VPWR VGND VPWR VGND sky130_ef_sc_hd__decap_40_12
XFILLER_32_475 VGND VGND VPWR VPWR sky130_fd_sc_hd__fill_1
XANTENNA__3189__A1 _5233_/A0 VGND VGND VPWR VPWR sky130_fd_sc_hd__diode_2
XFILLER_20_637 VGND VGND VPWR VPWR sky130_fd_sc_hd__fill_4
X_5512_ _6222_/CLK hold56/X VGND VGND VPWR VPWR hold55/A sky130_fd_sc_hd__dfxtp_1
XFILLER_9_671 VGND VGND VPWR VPWR sky130_fd_sc_hd__fill_1
X_3773_ _5044_/A1 _3773_/A1 _3776_/S VGND VGND VPWR VPWR _3773_/X sky130_fd_sc_hd__mux2_1
XFILLER_118_525 VGND VGND VPWR VPWR sky130_fd_sc_hd__fill_4
XTAP_TAPCELL_ROW_113_2001 VGND VPWR sky130_fd_sc_hd__tapvpwrvgnd_1
X_2724_ _3030_/S _2727_/C _5222_/A VGND VGND VPWR VPWR _2724_/Y sky130_fd_sc_hd__a21oi_1
XFILLER_8_181 VGND VGND VPWR VPWR sky130_fd_sc_hd__fill_4
XFILLER_133_517 VPWR VGND VPWR VGND sky130_ef_sc_hd__decap_40_12
XFILLER_118_569 VPWR VGND VPWR VGND sky130_ef_sc_hd__decap_40_12
X_2655_ _2655_/A VGND VGND VPWR VPWR _2655_/Y sky130_fd_sc_hd__inv_2
X_5443_ _5731_/CLK _5443_/D VGND VGND VPWR VPWR _5443_/Q sky130_fd_sc_hd__dfxtp_1
XANTENNA__4138__B1 _4252_/B1 VGND VGND VPWR VPWR sky130_fd_sc_hd__diode_2
X_5374_ _6366_/CLK _5374_/D VGND VGND VPWR VPWR _5374_/Q sky130_fd_sc_hd__dfxtp_1
XFILLER_114_753 VGND VGND VPWR VPWR sky130_fd_sc_hd__fill_2
X_4325_ hold97/X _5047_/A1 _4325_/S VGND VGND VPWR VPWR hold98/A sky130_fd_sc_hd__mux2_1
XANTENNA__3045__S _3072_/S VGND VGND VPWR VPWR sky130_fd_sc_hd__diode_2
XFILLER_113_263 VGND VGND VPWR VPWR sky130_fd_sc_hd__fill_1
XFILLER_101_403 VGND VGND VPWR VPWR sky130_fd_sc_hd__fill_4
XTAP_TAPCELL_ROW_93_1697 VGND VPWR sky130_fd_sc_hd__tapvpwrvgnd_1
XFILLER_87_615 VGND VGND VPWR VPWR sky130_fd_sc_hd__fill_1
Xfanout116 hold2232/X VGND VGND VPWR VPWR _5228_/A0 sky130_fd_sc_hd__buf_4
Xfanout127 _5814_/Q VGND VGND VPWR VPWR _4904_/A0 sky130_fd_sc_hd__clkbuf_4
Xfanout105 hold2228/X VGND VGND VPWR VPWR _5042_/A1 sky130_fd_sc_hd__buf_4
Xfanout138 _2628_/A VGND VGND VPWR VPWR _4663_/A sky130_fd_sc_hd__buf_4
XFILLER_101_425 VGND VGND VPWR VPWR sky130_fd_sc_hd__fill_2
Xfanout149 _4713_/S VGND VGND VPWR VPWR _4810_/S sky130_fd_sc_hd__clkbuf_8
X_4256_ _5777_/Q _6035_/Q _4257_/S VGND VGND VPWR VPWR _4256_/X sky130_fd_sc_hd__mux2_1
X_3207_ _3207_/A _3207_/B _3207_/C VGND VGND VPWR VPWR _5069_/B sky130_fd_sc_hd__or3_4
XANTENNA__2884__S _3030_/S VGND VGND VPWR VPWR sky130_fd_sc_hd__diode_2
XANTENNA__4665__A _4802_/A VGND VGND VPWR VPWR sky130_fd_sc_hd__diode_2
X_4187_ _4183_/X _4185_/X _4186_/X _4252_/B1 VGND VGND VPWR VPWR _4187_/X sky130_fd_sc_hd__a22o_1
XFILLER_83_821 VPWR VGND VPWR VGND sky130_ef_sc_hd__decap_40_12
XTAP_TAPCELL_ROW_2_335 VGND VPWR sky130_fd_sc_hd__tapvpwrvgnd_1
XTAP_TAPCELL_ROW_2_324 VGND VPWR sky130_fd_sc_hd__tapvpwrvgnd_1
XFILLER_27_225 VGND VGND VPWR VPWR sky130_fd_sc_hd__fill_1
X_3138_ _4924_/C _3138_/B _5323_/Q VGND VGND VPWR VPWR _3708_/B sky130_fd_sc_hd__or3b_4
XTAP_TAPCELL_ROW_124_2163 VGND VPWR sky130_fd_sc_hd__tapvpwrvgnd_1
X_3069_ _2735_/A _3054_/X _3068_/X _2925_/S VGND VGND VPWR VPWR _3069_/X sky130_fd_sc_hd__o211a_1
XANTENNA__4613__A1 _4791_/A1 VGND VGND VPWR VPWR sky130_fd_sc_hd__diode_2
XANTENNA_fanout165_X _4237_/S VGND VGND VPWR VPWR sky130_fd_sc_hd__diode_2
XFILLER_51_773 VGND VGND VPWR VPWR sky130_fd_sc_hd__fill_8
XFILLER_11_615 VGND VGND VPWR VPWR sky130_fd_sc_hd__fill_1
XTAP_TAPCELL_ROW_41_908 VGND VPWR sky130_fd_sc_hd__tapvpwrvgnd_1
XTAP_TAPCELL_ROW_41_919 VGND VPWR sky130_fd_sc_hd__tapvpwrvgnd_1
XTAP_TAPCELL_ROW_21_610 VGND VPWR sky130_fd_sc_hd__tapvpwrvgnd_1
XTAP_TAPCELL_ROW_21_621 VGND VPWR sky130_fd_sc_hd__tapvpwrvgnd_1
XFILLER_109_503 VGND VGND VPWR VPWR sky130_fd_sc_hd__fill_1
XANTENNA_clkbuf_leaf_93_clk_A clkload2/A VGND VGND VPWR VPWR sky130_fd_sc_hd__diode_2
XFILLER_109_525 VPWR VGND VPWR VGND sky130_ef_sc_hd__decap_40_12
XFILLER_128_87 VGND VGND VPWR VPWR sky130_fd_sc_hd__fill_2
XFILLER_88_25 VGND VGND VPWR VPWR sky130_fd_sc_hd__fill_2
XFILLER_105_753 VPWR VGND VPWR VGND sky130_ef_sc_hd__decap_40_12
Xhold170 _4283_/X VGND VGND VPWR VPWR _5935_/D sky130_fd_sc_hd__dlygate4sd3_1
XFILLER_120_701 VPWR VGND VPWR VGND sky130_ef_sc_hd__decap_40_12
Xhold192 _3291_/X VGND VGND VPWR VPWR _5410_/D sky130_fd_sc_hd__dlygate4sd3_1
XFILLER_105_797 VPWR VGND VPWR VGND sky130_ef_sc_hd__decap_40_12
XFILLER_104_241 VGND VGND VPWR VPWR sky130_fd_sc_hd__fill_2
Xhold181 _6231_/Q VGND VGND VPWR VPWR hold181/X sky130_fd_sc_hd__dlygate4sd3_1
XANTENNA_clkbuf_leaf_31_clk_A clkload3/A VGND VGND VPWR VPWR sky130_fd_sc_hd__diode_2
XANTENNA_fanout78_X _3926_/A1 VGND VGND VPWR VPWR sky130_fd_sc_hd__diode_2
XANTENNA__3104__A1 _5241_/A1 VGND VGND VPWR VPWR sky130_fd_sc_hd__diode_2
XFILLER_93_629 VPWR VGND VPWR VGND sky130_ef_sc_hd__decap_40_12
XFILLER_74_810 VGND VGND VPWR VPWR sky130_fd_sc_hd__fill_2
XTAP_TAPCELL_ROW_109_1936 VGND VPWR sky130_fd_sc_hd__tapvpwrvgnd_1
XANTENNA__2863__B1 _3076_/A1 VGND VGND VPWR VPWR sky130_fd_sc_hd__diode_2
XTAP_TAPCELL_ROW_29_732 VGND VPWR sky130_fd_sc_hd__tapvpwrvgnd_1
XANTENNA_clkbuf_leaf_46_clk_A clkload4/A VGND VGND VPWR VPWR sky130_fd_sc_hd__diode_2
XFILLER_34_718 VGND VGND VPWR VPWR sky130_fd_sc_hd__fill_1
XFILLER_61_559 VGND VGND VPWR VPWR sky130_fd_sc_hd__fill_1
XTAP_TAPCELL_ROW_64_1265 VGND VPWR sky130_fd_sc_hd__tapvpwrvgnd_1
XTAP_TAPCELL_ROW_64_1254 VGND VPWR sky130_fd_sc_hd__tapvpwrvgnd_1